dashboard_4bus_dlmp_scenario_lab_4_1.m
function dashboard_4bus_dlmp_scenario_lab_4_1()
%DASHBOARD_4BUS_DLMP_SCENARIO_LAB
% Interactive 4-bus MATPOWER scenario generator, validation dashboard, and
% econometric output explorer.
%
% Requirements:
%   1) MATLAB
%   2) MATPOWER on the MATLAB path
%
% Run:
%   dashboard_4bus_dlmp_scenario_lab
%
% Notes:
%   - The network topology and generator limits are kept consistent with the
%     provided 4-bus radial 33 kV prosumer case.
%   - Scenario count, random seed, load PDF, power-factor PDF, offer PDF,
%     ranges, validation, and output file name are controlled from the UI.
%   - The output Excel file contains scenario data, static bus/branch data,
%     derived metrics, RUNPF validation diagnostics, validation summary, and
%     econometric model summaries.

    %% -----------------------------
    % App state
    %% -----------------------------
    app = struct();
    app.T = table();
    app.sensitivityT = table();
    app.networkTemplate = "Current 4-bus system";
    app.topologyType = "Radial chain";
    app.isDynamicNetworkMode = false;
    app.busConfig = table();
    app.branchConfig = table();
    app.genConfig = table();
    app.dynamic_mpc = [];
    app.dynamicValidationMessages = strings(0, 1);
    app.scenarioSummary = table();
    app.busResultsLong = table();
    app.branchResultsLong = table();
    app.genResultsLong = table();
    app.validationTable = table();
    app.validationSummary = table();
    app.econTable = table();
    app.base_mpc = case4bus_radial_33kv_prosumer_dashboard();

    %% -----------------------------
    % UI construction
    %% -----------------------------
    app.fig = uifigure( ...
        'Name', '4-Bus DLMP Scenario Lab | MATPOWER Dashboard', ...
        'Position', [60 60 1500 850]);

% =========================================================
% ROOT LAYOUT: TOP BUTTON BAR + MAIN DASHBOARD
% =========================================================

rootGrid = uigridlayout(app.fig, [2 1]);
rootGrid.RowHeight = {52, '1x'};        % first row is the top button bar
rootGrid.ColumnWidth = {'1x'};
rootGrid.Padding = [10 10 10 10];
rootGrid.RowSpacing = 8;

% =========================================================
% TOP BUTTON BAR
% =========================================================

topButtonGrid               = uigridlayout(rootGrid, [1 5]);
topButtonGrid.Layout.Row    = 1;
topButtonGrid.Layout.Column = 1;

topButtonGrid.ColumnWidth   = {240, 240, 240, 220, '1x'};
topButtonGrid.RowHeight     = {'1x'};
topButtonGrid.Padding       = [0 0 0 0];
topButtonGrid.ColumnSpacing = 10;

app.runButton = uibutton(topButtonGrid, 'push', ...
    'Text', 'Generate Scenarios + Analyze', ...
    'FontWeight', 'bold', ...
    'ButtonPushedFcn', @(~, ~) runGeneration());

app.runButton.Layout.Row        = 1;
app.runButton.Layout.Column     = 1;

app.loadButton = uibutton(topButtonGrid, 'push', ...
    'Text', 'Load Existing Excel + Analyze', ...
    'FontWeight', 'bold', ...
    'ButtonPushedFcn', @(~, ~) loadExistingExcel());

app.loadButton.Layout.Row       = 1;
app.loadButton.Layout.Column    = 2;

app.saveButton = uibutton(topButtonGrid, 'push', ...
    'Text', 'Save Current Results to Excel', ...
    'FontWeight', 'bold', ...
    'ButtonPushedFcn', @(~, ~) saveCurrentResults());

app.saveButton.Layout.Row       = 1;
app.saveButton.Layout.Column    = 3;

app.sensitivityButton = uibutton(topButtonGrid, 'push', ...
    'Text', 'Run Sensitivity Lab', ...
    'FontWeight', 'bold', ...
    'ButtonPushedFcn', @(~, ~) runSensitivityLab());

app.sensitivityButton.Layout.Row    = 1;
app.sensitivityButton.Layout.Column = 4;

app.status = uilabel(topButtonGrid, ...
    'Text', 'Ready.', ...
    'FontWeight', 'bold', ...
    'HorizontalAlignment', 'left');

    app.status.Layout.Row       = 1;
    app.status.Layout.Column    = 5;
    
    % =========================================================
    % MAIN DASHBOARD AREA
    % =========================================================
    
    mainGrid                = uigridlayout(rootGrid, [1 2]);
    mainGrid.Layout.Row     = 2;
    mainGrid.Layout.Column  = 1;
    
    mainGrid.ColumnWidth    = {360, '1x'};
    mainGrid.RowHeight      = {'1x'};
    mainGrid.Padding        = [0 0 0 0];
    mainGrid.ColumnSpacing  = 12;
    controlPanel            = uipanel(mainGrid, 'Title', 'Scenario Controls');
    try
        controlPanel.Scrollable = 'on';
    catch
        % Older MATLAB releases may not support scrollable panels.
    end
    controlPanel.Layout.Row = 1;
    controlPanel.Layout.Column = 1;

    cg = uigridlayout(controlPanel, [31 2]);
    cg.RowHeight = repmat({26}, 1, 31);
    cg.ColumnWidth = {160, '1x'};
    cg.Padding = [10 10 10 10];
    cg.RowSpacing = 6;

    addLabel(cg, 'Scenario count');
    app.nField = uispinner(cg, 'Value', 400, 'Limits', [1 Inf], 'RoundFractionalValues', 'on');

    addLabel(cg, 'Random seed');
    app.seedField = uispinner(cg, 'Value', 42, 'RoundFractionalValues', 'on');

    addLabel(cg, 'Load PDF');
    app.loadPdfDrop = uidropdown(cg, 'Items', pdfItems(), 'Value', 'Uniform');

    addLabel(cg, 'Power factor PDF');
    app.pfPdfDrop = uidropdown(cg, 'Items', pdfItems(), 'Value', 'Uniform');

    addLabel(cg, 'Offer PDF');
    app.offerPdfDrop = uidropdown(cg, 'Items', pdfItems(), 'Value', 'Uniform');

    addSection(cg, 'Demand and PF ranges');

    addLabel(cg, 'Bus 2 Pd [MW]');
    app.pd2Field = uieditfield(cg, 'text', 'Value', '1.60, 2.40');

    addLabel(cg, 'Bus 4 Pd [MW]');
    app.pd4Field = uieditfield(cg, 'text', 'Value', '0.50, 1.10');

    addLabel(cg, 'Bus 2 PF');
    app.pf2Field = uieditfield(cg, 'text', 'Value', '0.88, 0.98');

    addLabel(cg, 'Bus 4 PF');
    app.pf4Field = uieditfield(cg, 'text', 'Value', '0.88, 0.98');

    addSection(cg, 'Offer coefficient ranges');

    addLabel(cg, 'Grid c1');
    app.gridC1Field = uieditfield(cg, 'text', 'Value', '80, 80');

    addLabel(cg, 'DER c1');
    app.derC1Field = uieditfield(cg, 'text', 'Value', '30, 30');

    addLabel(cg, 'Prosumer c1');
    app.proC1Field = uieditfield(cg, 'text', 'Value', '20, 20');

    addLabel(cg, 'Grid c2');
    app.gridC2Field = uieditfield(cg, 'text', 'Value', '0.015, 0.015');

    addLabel(cg, 'DER c2');
    app.derC2Field = uieditfield(cg, 'text', 'Value', '0.010, 0.010');

    addLabel(cg, 'Prosumer c2');
    app.proC2Field = uieditfield(cg, 'text', 'Value', '0.005, 0.005');

    addSection(cg, 'Validation and export');

    addLabel(cg, 'Run validation');
    app.validateCheck = uicheckbox(cg, 'Text', 'RUNPF consistency check', 'Value', true);

    addLabel(cg, 'Output Excel');
    app.outputField = uieditfield(cg, 'text', 'Value', 'dataset_4bus_dashboard.xlsx');

    addLabel(cg, 'Sensitivity Excel');
    app.sensOutputField = uieditfield(cg, 'text', 'Value', 'sensitivity_4bus_dashboard.xlsx');

    app.sideStatus = uilabel(cg, 'Text', 'Ready.', 'FontWeight', 'bold');
    app.sideStatus.Layout.Row = 28;
    app.sideStatus.Layout.Column = [1 2];

    app.log = uitextarea(cg, 'Editable', 'off', 'Value', {'Ready. Configure inputs and run.'});
    app.log.Layout.Row = [29 31];
    app.log.Layout.Column = [1 2];

    tabs = uitabgroup(mainGrid);
    tabs.Layout.Row = 1;
    tabs.Layout.Column = 2;

    app.tabNetworkBuilder = uitab(tabs, 'Title', 'Network Builder');
    app.tabOverview = uitab(tabs, 'Title', 'Overview');
    app.tabEconometrics = uitab(tabs, 'Title', 'Econometric Outputs');
    app.tabValidation = uitab(tabs, 'Title', 'Validation Diagnostics');
    app.tabSensitivity = uitab(tabs, 'Title', 'Sensitivity Lab');
    app.tabData = uitab(tabs, 'Title', 'Data Preview');

    ng = uigridlayout(app.tabNetworkBuilder, [2 3]);
    ng.Padding = [10 10 10 10];
    ng.ColumnWidth = {310, '1.4x', '1x'};
    ng.RowHeight = {'1x', '1x'};

    quickPanel = uipanel(ng, 'Title', 'Quick Setup');
    quickPanel.Layout.Row = [1 2];
    quickPanel.Layout.Column = 1;
    qg = uigridlayout(quickPanel, [16 2]);
    qg.RowHeight = repmat({24}, 1, 16);
    qg.ColumnWidth = {150, '1x'};
    qg.Padding = [8 8 8 8];
    qg.RowSpacing = 5;

    addLabel(qg, 'Template');
    app.networkTemplateDrop = uidropdown(qg, ...
        'Items', {'Current 4-bus system', 'Auto radial feeder', 'Custom blank network'}, ...
        'Value', char(app.networkTemplate));

    addLabel(qg, 'Topology');
    app.topologyDrop = uidropdown(qg, ...
        'Items', {'Radial chain', 'Star feeder', 'Custom parent list'}, ...
        'Value', char(app.topologyType));

    addLabel(qg, 'Load buses');
    app.nLoadBusField = uispinner(qg, 'Value', 1, 'Limits', [0 Inf], 'RoundFractionalValues', 'on');

    addLabel(qg, 'DER buses');
    app.nDERBusField = uispinner(qg, 'Value', 1, 'Limits', [0 Inf], 'RoundFractionalValues', 'on');

    addLabel(qg, 'Prosumer buses');
    app.nProsumerBusField = uispinner(qg, 'Value', 1, 'Limits', [0 Inf], 'RoundFractionalValues', 'on');

    addLabel(qg, 'Default load Pd');
    app.defaultLoadRangeField = uieditfield(qg, 'text', 'Value', '0.50, 2.00');

    addLabel(qg, 'Default PF');
    app.defaultPfRangeField = uieditfield(qg, 'text', 'Value', '0.88, 0.98');

    addLabel(qg, 'Default branch r');
    app.defaultBranchRField = uieditfield(qg, 'text', 'Value', '0.005');

    addLabel(qg, 'Default branch x');
    app.defaultBranchXField = uieditfield(qg, 'text', 'Value', '0.006');

    addLabel(qg, 'Default rateA');
    app.defaultBranchRateField = uieditfield(qg, 'text', 'Value', '5.0');

    addLabel(qg, 'Default base kV');
    app.defaultBaseKVField = uieditfield(qg, 'text', 'Value', '33');

    addLabel(qg, 'Default baseMVA');
    app.defaultBaseMVAField = uieditfield(qg, 'text', 'Value', '10');

    app.previewNetworkButton = uibutton(qg, 'push', ...
        'Text', 'Build / Preview Network', ...
        'ButtonPushedFcn', @(~, ~) buildPreviewNetwork());
    app.previewNetworkButton.Layout.Row = 13;
    app.previewNetworkButton.Layout.Column = [1 2];

    app.useNetworkButton = uibutton(qg, 'push', ...
        'Text', 'Use This Network', ...
        'ButtonPushedFcn', @(~, ~) useThisNetwork());
    app.useNetworkButton.Layout.Row = 14;
    app.useNetworkButton.Layout.Column = [1 2];

    app.networkQuickSummary = uilabel(qg, 'Text', '4-bus template ready.', 'FontWeight', 'bold');
    app.networkQuickSummary.Layout.Row = 15;
    app.networkQuickSummary.Layout.Column = [1 2];

    networkPreviewPanel = uipanel(ng, 'Title', 'Network Preview');
    networkPreviewPanel.Layout.Row = 1;
    networkPreviewPanel.Layout.Column = 3;
    npg = uigridlayout(networkPreviewPanel, [1 1]);
    npg.Padding = [6 6 6 6];
    app.axNetworkPreview = uiaxes(npg);
    title(app.axNetworkPreview, 'Network Preview');
    grid(app.axNetworkPreview, 'off');

    networkValidationPanel = uipanel(ng, 'Title', 'Validation');
    networkValidationPanel.Layout.Row = 2;
    networkValidationPanel.Layout.Column = 3;
    nvg = uigridlayout(networkValidationPanel, [1 1]);
    nvg.Padding = [6 6 6 6];
    app.networkValidationArea = uitextarea(nvg, 'Editable', 'off', ...
        'Value', {'Build or edit a network, then click Use This Network.'});

    configPanel = uipanel(ng, 'Title', 'Advanced Tables');
    configPanel.Layout.Row = [1 2];
    configPanel.Layout.Column = 2;
    cfgGrid = uigridlayout(configPanel, [3 1]);
    cfgGrid.RowHeight = {'1x', '1x', '1x'};
    cfgGrid.Padding = [8 8 8 8];

    app.busConfigUITable = uitable(cfgGrid, 'ColumnEditable', true(1, 10), ...
        'CellEditCallback', @(~, ~) handleNetworkTableEdit());
    app.branchConfigUITable = uitable(cfgGrid, 'ColumnEditable', true(1, 8), ...
        'CellEditCallback', @(~, ~) handleNetworkTableEdit());
    app.genConfigUITable = uitable(cfgGrid, 'ColumnEditable', true(1, 14), ...
        'CellEditCallback', @(~, ~) handleNetworkTableEdit());

    og = uigridlayout(app.tabOverview, [2 2]);
    og.Padding = [10 10 10 10];
    app.axLoadHist = uiaxes(og); title(app.axLoadHist, 'Load Distribution'); grid(app.axLoadHist, 'off');
    app.axDlmpHist = uiaxes(og); title(app.axDlmpHist, 'DLMP Distribution'); grid(app.axDlmpHist, 'off');
    app.axVoltage = uiaxes(og); title(app.axVoltage, 'Voltage Box Plot Proxy'); grid(app.axVoltage, 'off');
    app.axLoading = uiaxes(og); title(app.axLoading, 'Branch Loading'); grid(app.axLoading, 'off');

    eg = uigridlayout(app.tabEconometrics, [2 3]);
    eg.Padding = [10 10 10 10];
    eg.ColumnWidth = {'1x', '1x', '1x'};

    app.axBus2DlmpDemand = uiaxes(eg);
    title(app.axBus2DlmpDemand, 'Bus 2 DLMP vs Total Demand');
    grid(app.axBus2DlmpDemand, 'off');

    app.axBus3DlmpDemand = uiaxes(eg);
    title(app.axBus3DlmpDemand, 'Bus 3 DLMP vs Total Demand');
    grid(app.axBus3DlmpDemand, 'off');

    app.axBus4DlmpDemand = uiaxes(eg);
    title(app.axBus4DlmpDemand, 'Bus 4 DLMP vs Total Demand');
    grid(app.axBus4DlmpDemand, 'off');

    app.axCostOLS = uiaxes(eg);
    title(app.axCostOLS, 'Objective Cost vs Total Demand');
    grid(app.axCostOLS, 'off');

    app.axLossDemand = uiaxes(eg);
    title(app.axLossDemand, 'Losses vs Total Demand');
    grid(app.axLossDemand, 'off');

    app.axC2LDemand = uiaxes(eg);
    title(app.axC2LDemand, 'Cost-to-Load vs Total Demand');
    grid(app.axC2LDemand, 'off');

    vg = uigridlayout(app.tabValidation, [2 2]);
    vg.Padding = [10 10 10 10];
    vg.ColumnWidth = {'1x', 420};
    app.axValErrors = uiaxes(vg); title(app.axValErrors, 'Validation Error Severity'); grid(app.axValErrors, 'off');
    app.axFailReasons = uiaxes(vg); title(app.axFailReasons, 'Dominant Fail Reasons'); grid(app.axFailReasons, 'off');
    app.validationUITable = uitable(vg, 'Data', table());
    app.validationUITable.Layout.Row = [1 2];
    app.validationUITable.Layout.Column = 2;
    app.validationSummaryArea = uitextarea(vg, 'Editable', 'off', 'Value', {'No validation result yet.'});
    app.validationSummaryArea.Layout.Row = 2;
    app.validationSummaryArea.Layout.Column = 1;

    sg = uigridlayout(app.tabSensitivity, [2 2]);
    sg.Padding = [10 10 10 10];
    app.axSensPd2 = uiaxes(sg); title(app.axSensPd2, 'Bus 2 Pd Sweep'); grid(app.axSensPd2, 'off');
    app.axSensPd4 = uiaxes(sg); title(app.axSensPd4, 'Bus 4 Pd Sweep'); grid(app.axSensPd4, 'off');
    app.axSensLocation = uiaxes(sg); title(app.axSensLocation, 'Same Total Demand, Different Load Location'); grid(app.axSensLocation, 'off');
    app.axSensSwap = uiaxes(sg); title(app.axSensSwap, 'Bus 2 / Bus 4 Pd Swap Effect'); grid(app.axSensSwap, 'off');

    dg = uigridlayout(app.tabData, [2 1]);
    dg.Padding = [10 10 10 10];
    dg.RowHeight = {28, '1x'};
    app.dataViewDrop = uidropdown(dg, ...
        'Items', {'Scenario Summary', 'Bus Results', 'Branch Results', 'Generator Results'}, ...
        'Value', 'Scenario Summary', ...
        'ValueChangedFcn', @(~, ~) updateTables());
    app.dataTabGroup = uitabgroup(dg);
    app.dataTabGroup.Layout.Row = 2;
    app.dataSummaryTab = uitab(app.dataTabGroup, 'Title', 'Scenario Summary');
    app.dataBusTab = uitab(app.dataTabGroup, 'Title', 'Bus Results');
    app.dataBranchTab = uitab(app.dataTabGroup, 'Title', 'Branch Results');
    app.dataGenTab = uitab(app.dataTabGroup, 'Title', 'Generator Results');
    app.dataSummaryUITable = uitable(uigridlayout(app.dataSummaryTab, [1 1]), 'Data', table());
    app.dataBusUITable = uitable(uigridlayout(app.dataBusTab, [1 1]), 'Data', table());
    app.dataBranchUITable = uitable(uigridlayout(app.dataBranchTab, [1 1]), 'Data', table());
    app.dataGenUITable = uitable(uigridlayout(app.dataGenTab, [1 1]), 'Data', table());

    %% -----------------------------
    % Nested UI helper functions
    %% -----------------------------
    function addLabel(parent, txt)
        uilabel(parent, 'Text', txt, 'HorizontalAlignment', 'right');
    end

    function addSection(parent, txt)
        lab = uilabel(parent, 'Text', txt, 'FontWeight', 'bold');
        lab.Layout.Column = [1 2];
    end

    function items = pdfItems()
        items = {'Uniform', 'Normal-Truncated', 'Triangular', 'Beta(2,2)-Bounded', 'Lognormal-Truncated', 'Two-Peak Mixture'};
    end

    function handleNetworkTableEdit()
        app.busConfig = app.busConfigUITable.Data;
        app.branchConfig = app.branchConfigUITable.Data;
        app.genConfig = app.genConfigUITable.Data;
        updateNetworkBuilderState(false);
    end

    %% -----------------------------
    % Main callbacks
    %% -----------------------------
    function runGeneration()
        if app.isDynamicNetworkMode
            runDynamicGeneration();
            return;
        end
        try
            app.runButton.Enable = 'off';
            app.status.Text = 'Running OPF scenarios...';
            logMsg('Starting scenario generation.');
            drawnow;

            cfg = readConfigFromUI();
            rng(cfg.seed);

            base_mpc = app.base_mpc;
            mpopt = mpoption('verbose', 0, 'out.all', 0, 'opf.ac.solver', 'MIPS');

            rows = struct([]);
            validCount = 0;
            totalAttempts = 0;
            rejectedCount = 0;
            opfFailCount = 0;

            while validCount < cfg.N
                scenarioSolved = false;
                candidateNo = validCount + 1;

                for attempt = 1:cfg.maxAttemptsPerScenario
                    totalAttempts = totalAttempts + 1;

                    scenario = generateScenarioFromConfig(cfg);
                    [scenario, isValid, validationMessage] = repairAndValidateScenarioDashboard(scenario, cfg.range);
                    if ~isValid
                        rejectedCount = rejectedCount + 1;
                        if attempt == 1 || mod(rejectedCount, 25) == 0
                            logMsg(sprintf('Candidate %d rejected: %s', candidateNo, validationMessage));
                        end
                        continue;
                    end

                    mpc = applyScenarioToMPCDashboard(base_mpc, scenario);

                    try
                        results = runopf(mpc, mpopt);
                    catch ME
                        opfFailCount = opfFailCount + 1;
                        if attempt == 1 || mod(opfFailCount, 25) == 0
                            logMsg(sprintf('Candidate %d OPF error: %s', candidateNo, ME.message));
                        end
                        continue;
                    end

                    if ~results.success
                        opfFailCount = opfFailCount + 1;
                        continue;
                    end

                    validCount = validCount + 1;
                    row = createOneRowRecordDashboard(validCount, scenario, results, attempt, cfg);

                    if validCount == 1
                        rows = row;
                    else
                        rows(validCount) = row;
                    end

                    scenarioSolved = true;
                    if validCount == 1 || mod(validCount, max(1, round(cfg.N/10))) == 0 || validCount == cfg.N
                        app.status.Text = sprintf('Generated %d / %d scenarios', validCount, cfg.N);
                        logMsg(sprintf('Generated %d / %d valid scenarios. Attempts: %d', validCount, cfg.N, totalAttempts));
                        drawnow limitrate;
                    end
                    break;
                end

                if ~scenarioSolved
                    error('Could not generate candidate %d after %d attempts. Try wider ranges or a different PDF.', candidateNo, cfg.maxAttemptsPerScenario);
                end
            end

            app.T = struct2table(rows);
            app.T = addDerivedMetrics(app.T);

            app.econTable = runEconometricModels(app.T);

            if cfg.runValidation
                logMsg('RUNPF validation started.');
                tol = defaultValidationTolerances();
                [app.validationTable, app.validationSummary] = validateScenarioTableWithRunpf(app.T, base_mpc, tol);
                logMsg('RUNPF validation completed.');
            else
                app.validationTable = table();
                app.validationSummary = table();
            end

            updateAllPlots();
            updateTables();
            savedFile = saveCurrentResults();

            if ~isempty(savedFile)
                app.status.Text = sprintf('Done. %d scenarios generated. Saved as %s', height(app.T), savedFile);
                logMsg(sprintf('Done. Excel output: %s', savedFile));
            else
                app.status.Text = sprintf('Done. %d scenarios generated.', height(app.T));
                logMsg(sprintf('Done. Excel output: %s', cfg.outputFile));
            end
        catch ME
            app.status.Text = 'Error.';
            logMsg(sprintf('ERROR: %s', ME.message));
            uialert(app.fig, ME.message, 'Dashboard Error');
        end
        app.runButton.Enable = 'on';
    end

    function loadExistingExcel()
        try
            [file, path] = uigetfile('*.xlsx', 'Select scenario dataset Excel file');
            if isequal(file, 0)
                return;
            end
            fullName = fullfile(path, file);
            logMsg(sprintf('Loading %s', fullName));

            T = readtable(fullName, 'Sheet', 'scenario_dataset');
            app.isDynamicNetworkMode = false;
            app.scenarioSummary = table();
            app.busResultsLong = table();
            app.branchResultsLong = table();
            app.genResultsLong = table();
            app.T = addDerivedMetrics(T);
            app.econTable = runEconometricModels(app.T);

            if app.validateCheck.Value
                tol = defaultValidationTolerances();
                [app.validationTable, app.validationSummary] = validateScenarioTableWithRunpf(app.T, app.base_mpc, tol);
            else
                app.validationTable = table();
                app.validationSummary = table();
            end

            updateAllPlots();
            updateTables();
            app.outputField.Value = file;
            app.status.Text = sprintf('Loaded %d rows.', height(app.T));
            logMsg('Existing Excel analysis completed.');
        catch ME
            app.status.Text = 'Error.';
            logMsg(sprintf('ERROR loading Excel: %s', ME.message));
            uialert(app.fig, ME.message, 'Load Error');
        end
    end

    function runDynamicGeneration()
        try
            app.runButton.Enable = 'off';
            app.status.Text = 'Running dynamic OPF scenarios...';
            logMsg('Starting dynamic scenario generation.');
            drawnow;

            cfg = readConfigFromUI();
            rng(cfg.seed);

            [isValid, messages] = validateNetworkConfig(app.busConfig, app.branchConfig, app.genConfig);
            app.dynamicValidationMessages = messages;
            app.networkValidationArea.Value = cellstr(messages);
            if ~isValid
                error('Network configuration is invalid. Fix the Network Builder tables before running scenarios.');
            end

            base_mpc = buildMPCFromConfig(app.busConfig, app.branchConfig, app.genConfig, cfg.dynamicBaseMVA);
            app.dynamic_mpc = base_mpc;
            mpopt = mpoption('verbose', 0, 'out.all', 0, 'opf.ac.solver', 'MIPS');

            summaryRows = struct([]);
            busRowsAll = table();
            branchRowsAll = table();
            genRowsAll = table();
            validCount = 0;
            totalAttempts = 0;
            opfFailCount = 0;

            while validCount < cfg.N
                scenarioSolved = false;
                candidateNo = validCount + 1;

                for attempt = 1:cfg.maxAttemptsPerScenario
                    totalAttempts = totalAttempts + 1;
                    scenario = generateDynamicScenarioFromConfig(cfg, app.busConfig, app.genConfig);
                    mpc = applyDynamicScenarioToMPC(base_mpc, scenario);

                    try
                        results = runopf(mpc, mpopt);
                    catch ME
                        opfFailCount = opfFailCount + 1;
                        if attempt == 1 || mod(opfFailCount, 25) == 0
                            logMsg(sprintf('Dynamic candidate %d OPF error: %s', candidateNo, ME.message));
                        end
                        continue;
                    end

                    if ~results.success
                        opfFailCount = opfFailCount + 1;
                        continue;
                    end

                    validCount = validCount + 1;
                    [summaryRow, busRows, branchRows, genRows] = createDynamicLongRecords(validCount, scenario, results, app.busConfig, app.branchConfig, app.genConfig, cfg);
                    if validCount == 1
                        summaryRows = summaryRow;
                        busRowsAll = busRows;
                        branchRowsAll = branchRows;
                        genRowsAll = genRows;
                    else
                        summaryRows(validCount) = summaryRow;
                        busRowsAll = [busRowsAll; busRows]; %#ok<AGROW>
                        branchRowsAll = [branchRowsAll; branchRows]; %#ok<AGROW>
                        genRowsAll = [genRowsAll; genRows]; %#ok<AGROW>
                    end

                    scenarioSolved = true;
                    if validCount == 1 || mod(validCount, max(1, round(cfg.N/10))) == 0 || validCount == cfg.N
                        app.status.Text = sprintf('Generated %d / %d dynamic scenarios', validCount, cfg.N);
                        logMsg(sprintf('Generated %d / %d dynamic scenarios. Attempts: %d', validCount, cfg.N, totalAttempts));
                        drawnow limitrate;
                    end
                    break;
                end

                if ~scenarioSolved
                    error('Could not generate dynamic candidate %d after %d attempts. Check generator limits, branch ratings, or load ranges.', candidateNo, cfg.maxAttemptsPerScenario);
                end
            end

            app.T = table();
            app.validationTable = table();
            app.validationSummary = table();
            app.econTable = table();
            app.scenarioSummary = struct2table(summaryRows);
            app.busResultsLong = busRowsAll;
            app.branchResultsLong = branchRowsAll;
            app.genResultsLong = genRowsAll;

            updateAllPlots();
            updateTables();
            savedFile = saveCurrentResults();

            if ~isempty(savedFile)
                app.status.Text = sprintf('Done. %d scenarios generated. Saved as %s', height(app.scenarioSummary), savedFile);
                logMsg(sprintf('Done. Dynamic Excel output: %s', savedFile));
            else
                app.status.Text = sprintf('Done. %d scenarios generated.', height(app.scenarioSummary));
            end
        catch ME
            app.status.Text = 'Error.';
            logMsg(sprintf('ERROR dynamic generation: %s', ME.message));
            uialert(app.fig, ME.message, 'Dynamic Generation Error');
        end
        app.runButton.Enable = 'on';
    end

    function runSensitivityLab()
        if ~strcmp(string(app.networkTemplate), "Current 4-bus system")
            msg = 'Dynamic Sensitivity Lab will be added in Phase 2. Current Sensitivity Lab only supports the original 4-bus template.';
            app.status.Text = 'Sensitivity Lab unavailable.';
            logMsg(msg);
            uialert(app.fig, msg, 'Phase 2 Notice');
            return;
        end
        try
            app.sensitivityButton.Enable = 'off';
            app.status.Text = 'Running sensitivity lab...';
            logMsg('Starting sensitivity lab.');
            drawnow;

            cfg = readConfigFromUI();
            baseScenario = fixedScenarioFromConfig(cfg);
            base_mpc = app.base_mpc;
            mpopt = mpoption('verbose', 0, 'out.all', 0, 'opf.ac.solver', 'MIPS');

            rows = struct([]);
            caseCount = 0;
            wideRange = sensitivityWideRange(cfg.range);

            pd2Vals = linspace(cfg.range.Pd2(1), cfg.range.Pd2(2), 60);
            for i = 1:numel(pd2Vals)
                scenario = baseScenario;
                scenario.Pd2 = pd2Vals(i);
                scenario.Qd2 = calcQfromPandPFDashboard(scenario.Pd2, scenario.pf2);
                addSensitivityCase(scenario, "sweep_Pd2", i, "Only Bus 2 Pd changes", cfg.range);
            end

            pd4Vals = linspace(cfg.range.Pd4(1), cfg.range.Pd4(2), 60);
            for i = 1:numel(pd4Vals)
                scenario = baseScenario;
                scenario.Pd4 = pd4Vals(i);
                scenario.Qd4 = calcQfromPandPFDashboard(scenario.Pd4, scenario.pf4);
                addSensitivityCase(scenario, "sweep_Pd4", i, "Only Bus 4 Pd changes", cfg.range);
            end

            Ptotal = mean(cfg.range.Pd2) + mean(cfg.range.Pd4);
            minPd2 = max(wideRange.Pd2(1), Ptotal - wideRange.Pd4(2));
            maxPd2 = min(wideRange.Pd2(2), Ptotal - wideRange.Pd4(1));
            pd2ShareVals = linspace(minPd2, maxPd2, 60);
            for i = 1:numel(pd2ShareVals)
                scenario = baseScenario;
                scenario.Pd2 = pd2ShareVals(i);
                scenario.Pd4 = Ptotal - scenario.Pd2;
                scenario.Qd2 = calcQfromPandPFDashboard(scenario.Pd2, scenario.pf2);
                scenario.Qd4 = calcQfromPandPFDashboard(scenario.Pd4, scenario.pf4);
                addSensitivityCase(scenario, "fixed_total_location", i, "Total Pd fixed; Bus 2 / Bus 4 load share changes", wideRange);
            end

            pd2PairVals = linspace(cfg.range.Pd2(1), cfg.range.Pd2(2), 30);
            pd4PairVals = linspace(cfg.range.Pd4(1), cfg.range.Pd4(2), 30);
            for i = 1:numel(pd2PairVals)
                scenario = baseScenario;
                scenario.Pd2 = pd2PairVals(i);
                scenario.Pd4 = pd4PairVals(i);
                scenario.Qd2 = calcQfromPandPFDashboard(scenario.Pd2, scenario.pf2);
                scenario.Qd4 = calcQfromPandPFDashboard(scenario.Pd4, scenario.pf4);
                addSensitivityCase(scenario, "swap_original", i, "Original Pd2/Pd4 placement", wideRange);

                scenario = baseScenario;
                scenario.Pd2 = pd4PairVals(i);
                scenario.Pd4 = pd2PairVals(i);
                scenario.Qd2 = calcQfromPandPFDashboard(scenario.Pd2, scenario.pf2);
                scenario.Qd4 = calcQfromPandPFDashboard(scenario.Pd4, scenario.pf4);
                addSensitivityCase(scenario, "swap_swapped", i, "Pd2 and Pd4 values swapped", wideRange);
            end

            if isempty(rows)
                error('Sensitivity lab produced no successful OPF cases.');
            end

            app.sensitivityT = struct2table(rows);
            app.sensitivityT = addDerivedMetrics(app.sensitivityT);
            plotSensitivityResults(app.sensitivityT);
            savedFile = saveSensitivityResults();

            if ~isempty(savedFile)
                app.status.Text = sprintf('Sensitivity lab done. Saved as %s', savedFile);
            else
                app.status.Text = 'Sensitivity lab done.';
            end
        catch ME
            app.status.Text = 'Error.';
            logMsg(sprintf('ERROR sensitivity lab: %s', ME.message));
            uialert(app.fig, ME.message, 'Sensitivity Lab Error');
        end
        app.sensitivityButton.Enable = 'on';

        function addSensitivityCase(scenario, experimentName, stepNo, noteText, rangeForValidation)
            [scenario, isValid, validationMessage] = repairAndValidateScenarioDashboard(scenario, rangeForValidation);
            if ~isValid
                logMsg(sprintf('Sensitivity case skipped [%s #%d]: %s', char(experimentName), stepNo, validationMessage));
                return;
            end

            mpc = applyScenarioToMPCDashboard(base_mpc, scenario);
            try
                results = runopf(mpc, mpopt);
            catch MErunopf
                logMsg(sprintf('Sensitivity OPF error [%s #%d]: %s', char(experimentName), stepNo, MErunopf.message));
                return;
            end

            if ~results.success
                logMsg(sprintf('Sensitivity OPF failed [%s #%d].', char(experimentName), stepNo));
                return;
            end

            caseCount = caseCount + 1;
            row = createOneRowRecordDashboard(caseCount, scenario, results, 1, cfg);
            row.experiment = string(experimentName);
            row.step_no = stepNo;
            row.note = string(noteText);

            if caseCount == 1
                rows = row;
            else
                rows(caseCount) = row;
            end
        end
    end

    function savedFile = saveCurrentResults()
        if app.isDynamicNetworkMode && ~isempty(app.scenarioSummary) && height(app.scenarioSummary) > 0
            savedFile = saveDynamicResults();
            return;
        end
        savedFile = '';
        if isempty(app.T) || height(app.T) == 0
            logMsg('No scenario table to save yet.');
            return;
        end

        try
            outputFile = strtrim(app.outputField.Value);
            if isempty(outputFile)
                outputFile = 'dataset_4bus_dashboard.xlsx';
            end
            % Append current date-time stamp to the filename (before extension)
            % Format: YYYYMMDD_HHMMSS
            stamp = char(datetime('now', 'Format', 'yyyyMMdd_HHmmss'));
            [p, n, e] = fileparts(outputFile);
            newName = sprintf('%s_%s%s', n, stamp, e);
            if isempty(p)
                outputFile = newName;
            else
                outputFile = fullfile(p, newName);
            end

            if isfile(outputFile)
                delete(outputFile);
            end

            exportTable = selectScenarioExportColumns(app.T);

            writetable(exportTable, outputFile, 'Sheet', 'scenario_dataset');
            writetable(createBusStaticTableDashboard(app.base_mpc), outputFile, 'Sheet', 'bus_static');
            writetable(createBranchStaticTableDashboard(app.base_mpc), outputFile, 'Sheet', 'branch_static');
            writetable(selectDerivedMetrics(app.T), outputFile, 'Sheet', 'derived_metrics');

            if ~isempty(app.validationTable)
                writetable(app.validationTable, outputFile, 'Sheet', 'runpf_validation');
            end
            if ~isempty(app.validationSummary)
                writetable(app.validationSummary, outputFile, 'Sheet', 'validation_summary');
            end
            % Econometric model table is intentionally not exported.
            % The dashboard now focuses on visual input-output relationships.

            logMsg(sprintf('Saved Excel file: %s', outputFile));
            savedFile = outputFile;
        catch ME
            logMsg(sprintf('ERROR saving Excel: %s', ME.message));
            uialert(app.fig, ME.message, 'Save Error');
        end
    end

    function savedFile = saveSensitivityResults()
        savedFile = '';
        if isempty(app.sensitivityT) || height(app.sensitivityT) == 0
            logMsg('No sensitivity table to save yet.');
            return;
        end

        try
            outputFile = strtrim(app.sensOutputField.Value);
            if isempty(outputFile)
                outputFile = readConfigFromUI().sensOutputFile;
            end

            stamp = char(datetime('now', 'Format', 'yyyyMMdd_HHmmss'));
            [p, n, e] = fileparts(outputFile);
            newName = sprintf('%s_%s%s', n, stamp, e);
            if isempty(p)
                outputFile = newName;
            else
                outputFile = fullfile(p, newName);
            end

            if isfile(outputFile)
                delete(outputFile);
            end

            writetable(app.sensitivityT, outputFile, 'Sheet', 'sensitivity_results');
            writetable(selectDerivedMetrics(app.sensitivityT), outputFile, 'Sheet', 'sensitivity_derived_metrics');
            writetable(createSensitivitySummaryTable(app.sensitivityT), outputFile, 'Sheet', 'sensitivity_summary');
            writetable(createBusStaticTableDashboard(app.base_mpc), outputFile, 'Sheet', 'bus_static');
            writetable(createBranchStaticTableDashboard(app.base_mpc), outputFile, 'Sheet', 'branch_static');

            logMsg(sprintf('Saved sensitivity Excel file: %s', outputFile));
            savedFile = outputFile;
        catch ME
            logMsg(sprintf('ERROR saving sensitivity Excel: %s', ME.message));
            uialert(app.fig, ME.message, 'Sensitivity Save Error');
        end
    end

    function savedFile = saveDynamicResults()
        savedFile = '';
        if isempty(app.scenarioSummary) || height(app.scenarioSummary) == 0
            logMsg('No dynamic scenario results to save yet.');
            return;
        end

        try
            outputFile = strtrim(app.outputField.Value);
            if isempty(outputFile)
                outputFile = 'dataset_4bus_dashboard.xlsx';
            end

            stamp = char(datetime('now', 'Format', 'yyyyMMdd_HHmmss'));
            [p, n, e] = fileparts(outputFile);
            newName = sprintf('%s_%s%s', n, stamp, e);
            if isempty(p)
                outputFile = newName;
            else
                outputFile = fullfile(p, newName);
            end

            if isfile(outputFile)
                delete(outputFile);
            end

            writetable(app.scenarioSummary, outputFile, 'Sheet', 'scenario_summary');
            writetable(app.busResultsLong, outputFile, 'Sheet', 'bus_results_long');
            writetable(app.branchResultsLong, outputFile, 'Sheet', 'branch_results_long');
            writetable(app.genResultsLong, outputFile, 'Sheet', 'generator_results_long');
            writetable(app.busConfig, outputFile, 'Sheet', 'bus_static');
            writetable(app.branchConfig, outputFile, 'Sheet', 'branch_static');
            writetable(app.genConfig, outputFile, 'Sheet', 'generator_static');
            writetable(table(app.dynamicValidationMessages, 'VariableNames', {'message'}), outputFile, 'Sheet', 'network_validation');

            logMsg(sprintf('Saved dynamic Excel file: %s', outputFile));
            savedFile = outputFile;
        catch ME
            logMsg(sprintf('ERROR saving dynamic Excel: %s', ME.message));
            uialert(app.fig, ME.message, 'Dynamic Save Error');
        end
    end

    %% -----------------------------
    % UI update functions
    %% -----------------------------
    function updateTables()
        if app.isDynamicNetworkMode && ~isempty(app.scenarioSummary)
            app.dataSummaryUITable.Data = firstNRows(app.scenarioSummary, 100);
            app.dataBusUITable.Data = firstNRows(app.busResultsLong, 100);
            app.dataBranchUITable.Data = firstNRows(app.branchResultsLong, 100);
            app.dataGenUITable.Data = firstNRows(app.genResultsLong, 100);

            switch app.dataViewDrop.Value
                case 'Scenario Summary'
                    app.dataTabGroup.SelectedTab = app.dataSummaryTab;
                case 'Bus Results'
                    app.dataTabGroup.SelectedTab = app.dataBusTab;
                case 'Branch Results'
                    app.dataTabGroup.SelectedTab = app.dataBranchTab;
                case 'Generator Results'
                    app.dataTabGroup.SelectedTab = app.dataGenTab;
            end
        elseif ~isempty(app.T)
            app.dataSummaryUITable.Data = firstNRows(app.T, 100);
            app.dataBusUITable.Data = table();
            app.dataBranchUITable.Data = table();
            app.dataGenUITable.Data = table();
            app.dataTabGroup.SelectedTab = app.dataSummaryTab;
        else
            app.dataSummaryUITable.Data = table();
            app.dataBusUITable.Data = table();
            app.dataBranchUITable.Data = table();
            app.dataGenUITable.Data = table();
        end
        % Econometric output table removed intentionally.
        % This tab now focuses on direct input-output scatter relations.
        if ~isempty(app.validationTable)
            app.validationUITable.Data = firstNRows(app.validationTable, 100);
            app.validationSummaryArea.Value = validationSummaryText(app.validationSummary);
        else
            app.validationUITable.Data = table();
            app.validationSummaryArea.Value = {'Validation was not run.'};
        end
    end

    function updateAllPlots()
        if app.isDynamicNetworkMode && ~isempty(app.scenarioSummary) && height(app.scenarioSummary) > 0
            updateDynamicPlots();
            return;
        end

        T = app.T;
        if isempty(T) || height(T) == 0
            return;
        end

        cla(app.axLoadHist); cla(app.axDlmpHist); cla(app.axVoltage); cla(app.axLoading);
        cla(app.axBus2DlmpDemand); cla(app.axBus3DlmpDemand); cla(app.axBus4DlmpDemand);
        cla(app.axCostOLS); cla(app.axLossDemand); cla(app.axC2LDemand);
        cla(app.axValErrors); cla(app.axFailReasons);

        %% Overview plots
        histogram(app.axLoadHist, T.total_Pd_MW, max(10, round(sqrt(height(T)))));
        xlabel(app.axLoadHist, 'Total Pd [MW]');
        ylabel(app.axLoadHist, 'Count');
        title(app.axLoadHist, 'Total Demand Distribution');
        grid(app.axLoadHist, 'off');

        dlmpVars = {'out_bus1_DLMP_LAM_P', 'out_bus2_DLMP_LAM_P', 'out_bus3_DLMP_LAM_P', 'out_bus4_DLMP_LAM_P'};
        hold(app.axDlmpHist, 'on');
        for i = 1:numel(dlmpVars)
            histogram(app.axDlmpHist, T.(dlmpVars{i}), 'DisplayStyle', 'stairs');
        end
        hold(app.axDlmpHist, 'off');
        xlabel(app.axDlmpHist, 'LAM_P');
        ylabel(app.axDlmpHist, 'Count');
        title(app.axDlmpHist, 'Bus-Level Active DLMP Distribution');
        legend(app.axDlmpHist, {'Bus 1','Bus 2','Bus 3','Bus 4'}, 'Location', 'best');
        grid(app.axDlmpHist, 'off');

        V = [T.out_bus1_Vm_pu, T.out_bus2_Vm_pu, T.out_bus3_Vm_pu, T.out_bus4_Vm_pu];
        plot(app.axVoltage, 1:4, mean(V, 1), '-o');
        hold(app.axVoltage, 'on');
        plot(app.axVoltage, 1:4, min(V, [], 1), '--');
        plot(app.axVoltage, 1:4, max(V, [], 1), '--');
        hold(app.axVoltage, 'off');
        xticks(app.axVoltage, 1:4);
        xlabel(app.axVoltage, 'Bus'); ylabel(app.axVoltage, 'Vm [p.u.]');
        title(app.axVoltage, 'Voltage Mean / Min / Max');
        legend(app.axVoltage, {'Mean','Min','Max'}, 'Location', 'best');
        grid(app.axVoltage, 'off');

        L = [T.out_branch1_loading_percent, T.out_branch2_loading_percent, T.out_branch3_loading_percent];
        plot(app.axLoading, L, '.');
        xlabel(app.axLoading, 'Scenario'); ylabel(app.axLoading, 'Loading [%]');
        title(app.axLoading, 'Branch Loading by Scenario');
        legend(app.axLoading, {'Branch 1','Branch 2','Branch 3'}, 'Location', 'best');
        grid(app.axLoading, 'off');

        %% Econometric / input-output relation plots
        % Bus 1 is the slack/reference bus, so the demand-DLMP relation plots
        % focus on Bus 2, Bus 3, and Bus 4.
        % The red line on the right y-axis is the Total Pd distribution.
        plotDLMPScatterWithDemandDistribution(app.axBus2DlmpDemand, ...
            T.total_Pd_MW, T.out_bus2_DLMP_LAM_P, ...
            'Total Pd [MW]', 'Bus 2 DLMP LAM_P', ...
            'Bus 2 DLMP vs Total Demand');

        plotDLMPScatterWithDemandDistribution(app.axBus3DlmpDemand, ...
            T.total_Pd_MW, T.out_bus3_DLMP_LAM_P, ...
            'Total Pd [MW]', 'Bus 3 DLMP LAM_P', ...
            'Bus 3 DLMP vs Total Demand');

        plotDLMPScatterWithDemandDistribution(app.axBus4DlmpDemand, ...
            T.total_Pd_MW, T.out_bus4_DLMP_LAM_P, ...
            'Total Pd [MW]', 'Bus 4 DLMP LAM_P', ...
            'Bus 4 DLMP vs Total Demand');

        plotInputOutputScatter(app.axCostOLS, T.total_Pd_MW, T.objective_cost, ...
            'Total Pd [MW]', 'Objective Cost', ...
            'Objective Cost vs Total Demand');

        plotInputOutputScatter(app.axLossDemand, T.total_Pd_MW, T.total_P_loss_MW, ...
            'Total Pd [MW]', 'Total P Loss [MW]', ...
            'Losses vs Total Demand');

        plotInputOutputScatter(app.axC2LDemand, T.total_Pd_MW, T.cost_to_load_total, ...
            'Total Pd [MW]', 'Cost-to-Load', ...
            'C2L vs Total Demand');

        %% Validation plots
        if ~isempty(app.validationTable) && height(app.validationTable) > 0
            Vt = app.validationTable;
            severity = [Vt.max_abs_Vm_error ./ 1e-5, Vt.max_abs_Va_error ./ 1e-3, ...
                        Vt.max_abs_Pf_error ./ 1e-4, Vt.max_abs_Qf_error ./ 1e-4, ...
                        Vt.max_abs_loading_error ./ 1e-3];
            plot(app.axValErrors, severity, '.');
            yline(app.axValErrors, 1, '--');
            xlabel(app.axValErrors, 'Scenario'); ylabel(app.axValErrors, 'Error / Tolerance');
            title(app.axValErrors, 'Validation Error Severity');
            legend(app.axValErrors, {'Vm','Va','Pf','Qf','Loading','Pass threshold'}, 'Location', 'best');
            grid(app.axValErrors, 'off');

            failRows = Vt(Vt.runpf_success == 1 & Vt.validation_pass == 0, :);
            if height(failRows) > 0
                cats = categorical(failRows.dominant_fail_reason);
                histogram(app.axFailReasons, cats);
                title(app.axFailReasons, 'Dominant Reasons for PF Success + Validation Fail');
                ylabel(app.axFailReasons, 'Count');
                grid(app.axFailReasons, 'off');
            else
                text(app.axFailReasons, 0.1, 0.5, 'No PF-success / validation-fail cases.', 'Units', 'normalized');
                axis(app.axFailReasons, 'off');
            end
        end
    end

    function updateDynamicPlots()
        T = app.scenarioSummary;
        if isempty(T) || height(T) == 0
            return;
        end

        cla(app.axLoadHist); cla(app.axDlmpHist); cla(app.axVoltage); cla(app.axLoading);
        cla(app.axBus2DlmpDemand); cla(app.axBus3DlmpDemand); cla(app.axBus4DlmpDemand);
        cla(app.axCostOLS); cla(app.axLossDemand); cla(app.axC2LDemand);
        cla(app.axValErrors); cla(app.axFailReasons);

        histogram(app.axLoadHist, T.total_Pd_MW, max(10, round(sqrt(height(T)))));
        xlabel(app.axLoadHist, 'Total Pd [MW]');
        ylabel(app.axLoadHist, 'Count');
        title(app.axLoadHist, 'Total Demand Distribution');
        grid(app.axLoadHist, 'off');

        busLong = app.busResultsLong;
        histogram(app.axDlmpHist, busLong.DLMP_LAM_P, max(10, round(sqrt(height(busLong)))));
        xlabel(app.axDlmpHist, 'DLMP LAM_P');
        ylabel(app.axDlmpHist, 'Count');
        title(app.axDlmpHist, 'DLMP Distribution Across All Buses');
        grid(app.axDlmpHist, 'off');

        meanVm = groupsummary(busLong, 'bus_id', 'mean', 'Vm_pu');
        minVm = groupsummary(busLong, 'bus_id', 'min', 'Vm_pu');
        maxVm = groupsummary(busLong, 'bus_id', 'max', 'Vm_pu');
        plot(app.axVoltage, meanVm.bus_id, meanVm.mean_Vm_pu, '-o');
        hold(app.axVoltage, 'on');
        plot(app.axVoltage, minVm.bus_id, minVm.min_Vm_pu, '--');
        plot(app.axVoltage, maxVm.bus_id, maxVm.max_Vm_pu, '--');
        hold(app.axVoltage, 'off');
        xlabel(app.axVoltage, 'Bus');
        ylabel(app.axVoltage, 'Vm [p.u.]');
        title(app.axVoltage, 'Voltage Mean / Min / Max');
        legend(app.axVoltage, {'Mean','Min','Max'}, 'Location', 'best');
        grid(app.axVoltage, 'off');

        plot(app.axLoading, app.branchResultsLong.scenario_id, app.branchResultsLong.loading_percent, '.');
        xlabel(app.axLoading, 'Scenario');
        ylabel(app.axLoading, 'Loading [%]');
        title(app.axLoading, 'Branch Loading by Scenario');
        grid(app.axLoading, 'off');

        plotInputOutputScatter(app.axBus2DlmpDemand, T.total_Pd_MW, T.objective_cost, ...
            'Total Pd [MW]', 'Objective Cost', 'Objective Cost vs Total Demand');

        plotInputOutputScatter(app.axBus3DlmpDemand, T.total_Pd_MW, T.DLMP_spread_LAM_P, ...
            'Total Pd [MW]', 'DLMP Spread LAM_P', 'DLMP Spread vs Total Demand');

        plotInputOutputScatter(app.axBus4DlmpDemand, T.total_Pd_MW, T.total_P_loss_MW, ...
            'Total Pd [MW]', 'Total P Loss [MW]', 'Losses vs Total Demand');

        plotInputOutputScatter(app.axCostOLS, T.total_Pd_MW, T.local_generation_share, ...
            'Total Pd [MW]', 'Local Generation Share', 'Local Generation Share vs Total Demand');

        plotInputOutputScatter(app.axLossDemand, T.total_Pd_MW, T.mean_DLMP_LAM_P, ...
            'Total Pd [MW]', 'Mean DLMP LAM_P', 'Mean DLMP vs Total Demand');

        plotInputOutputScatter(app.axC2LDemand, T.total_Pd_MW, T.total_Q_loss_MVAr, ...
            'Total Pd [MW]', 'Total Q Loss [MVAr]', 'Reactive Losses vs Total Demand');

        app.validationUITable.Data = table();
        app.validationSummaryArea.Value = {'Dynamic RUNPF validation is not implemented in Phase 1.'};
        text(app.axValErrors, 0.1, 0.5, 'Dynamic mode uses long-format outputs.', 'Units', 'normalized');
        axis(app.axValErrors, 'off');
        text(app.axFailReasons, 0.1, 0.5, 'Network preview remains in the Network Builder tab.', 'Units', 'normalized');
        axis(app.axFailReasons, 'off');
    end

    function buildPreviewNetwork()
        defaults = readQuickSetupDefaults();
        template = string(app.networkTemplateDrop.Value);
        topology = string(app.topologyDrop.Value);
        app.networkTemplate = template;
        app.topologyType = topology;

        [busConfig, branchConfig, genConfig, messages] = createNetworkConfigFromQuickSetup( ...
            template, topology, round(app.nLoadBusField.Value), round(app.nDERBusField.Value), ...
            round(app.nProsumerBusField.Value), defaults);

        app.busConfig = busConfig;
        app.branchConfig = branchConfig;
        app.genConfig = genConfig;
        app.dynamicValidationMessages = string(messages(:));
        updateNetworkBuilderState(false);
    end

    function useThisNetwork()
        app.busConfig = app.busConfigUITable.Data;
        app.branchConfig = app.branchConfigUITable.Data;
        app.genConfig = app.genConfigUITable.Data;
        updateNetworkBuilderState(true);
    end

    function updateNetworkBuilderState(activateDynamicMode)
        [isValid, messages] = validateNetworkConfig(app.busConfig, app.branchConfig, app.genConfig);
        messages = [app.dynamicValidationMessages; messages];
        messages = messages(strlength(messages) > 0);
        if isempty(messages)
            messages = "Network configuration looks ready.";
        end
        app.networkValidationArea.Value = cellstr(messages);
        app.networkQuickSummary.Text = sprintf('%d buses | %d branches | %d generators', ...
            height(app.busConfig), height(app.branchConfig), height(app.genConfig));

        app.busConfigUITable.Data = app.busConfig;
        app.branchConfigUITable.Data = app.branchConfig;
        app.genConfigUITable.Data = app.genConfig;
        plotNetworkPreview(app.axNetworkPreview, app.busConfig, app.branchConfig);

        if activateDynamicMode
            if ~isValid
                app.dynamicValidationMessages = messages;
                uialert(app.fig, strjoin(cellstr(messages), newline), 'Invalid Network');
                return;
            end

            cfg = readConfigFromUI();
            app.dynamic_mpc = buildMPCFromConfig(app.busConfig, app.branchConfig, app.genConfig, cfg.dynamicBaseMVA);
            app.dynamicValidationMessages = messages;
            app.isDynamicNetworkMode = true;
            app.status.Text = sprintf('Using network: %s', app.networkTemplate);
            logMsg(sprintf('Dynamic network activated: %s', app.networkTemplate));
        end
    end

    function defaults = readQuickSetupDefaults()
        defaults = struct();
        defaults.loadPdRange = parseRange(app.defaultLoadRangeField.Value, 'Default load Pd range');
        defaults.pfRange = parseRange(app.defaultPfRangeField.Value, 'Default PF range');
        defaults.branch_r = str2double(app.defaultBranchRField.Value);
        defaults.branch_x = str2double(app.defaultBranchXField.Value);
        defaults.branch_b = 0;
        defaults.branch_rateA = str2double(app.defaultBranchRateField.Value);
        defaults.base_kV = str2double(app.defaultBaseKVField.Value);
        defaults.baseMVA = str2double(app.defaultBaseMVAField.Value);
    end

    function plotSensitivityResults(S)
        cla(app.axSensPd2); cla(app.axSensPd4); cla(app.axSensLocation); cla(app.axSensSwap);

        if isempty(S) || height(S) == 0
            return;
        end

        sweepPd2 = S(strcmp(string(S.experiment), "sweep_Pd2"), :);
        if height(sweepPd2) > 0
            sweepPd2 = sortrows(sweepPd2, 'step_no');
            plot(app.axSensPd2, sweepPd2.in_bus2_Pd_MW, sweepPd2.out_bus2_DLMP_LAM_P, '-o');
            hold(app.axSensPd2, 'on');
            plot(app.axSensPd2, sweepPd2.in_bus2_Pd_MW, sweepPd2.out_bus3_DLMP_LAM_P, '-o');
            plot(app.axSensPd2, sweepPd2.in_bus2_Pd_MW, sweepPd2.out_bus4_DLMP_LAM_P, '-o');
            hold(app.axSensPd2, 'off');
            xlabel(app.axSensPd2, 'Bus 2 Pd [MW]');
            ylabel(app.axSensPd2, 'DLMP LAM_P');
            title(app.axSensPd2, 'Only Bus 2 Pd Changes');
            legend(app.axSensPd2, {'Bus 2', 'Bus 3', 'Bus 4'}, 'Location', 'best');
            grid(app.axSensPd2, 'off');
        end

        sweepPd4 = S(strcmp(string(S.experiment), "sweep_Pd4"), :);
        if height(sweepPd4) > 0
            sweepPd4 = sortrows(sweepPd4, 'step_no');
            plot(app.axSensPd4, sweepPd4.in_bus4_Pd_MW, sweepPd4.out_bus2_DLMP_LAM_P, '-o');
            hold(app.axSensPd4, 'on');
            plot(app.axSensPd4, sweepPd4.in_bus4_Pd_MW, sweepPd4.out_bus3_DLMP_LAM_P, '-o');
            plot(app.axSensPd4, sweepPd4.in_bus4_Pd_MW, sweepPd4.out_bus4_DLMP_LAM_P, '-o');
            hold(app.axSensPd4, 'off');
            xlabel(app.axSensPd4, 'Bus 4 Pd [MW]');
            ylabel(app.axSensPd4, 'DLMP LAM_P');
            title(app.axSensPd4, 'Only Bus 4 Pd Changes');
            legend(app.axSensPd4, {'Bus 2', 'Bus 3', 'Bus 4'}, 'Location', 'best');
            grid(app.axSensPd4, 'off');
        end

        fixedLocation = S(strcmp(string(S.experiment), "fixed_total_location"), :);
        if height(fixedLocation) > 0
            fixedLocation = sortrows(fixedLocation, 'step_no');
            shareBus2 = fixedLocation.in_bus2_Pd_MW ./ max(eps, fixedLocation.total_Pd_MW);
            plot(app.axSensLocation, shareBus2, fixedLocation.out_bus2_DLMP_LAM_P, '-o');
            hold(app.axSensLocation, 'on');
            plot(app.axSensLocation, shareBus2, fixedLocation.out_bus3_DLMP_LAM_P, '-o');
            plot(app.axSensLocation, shareBus2, fixedLocation.out_bus4_DLMP_LAM_P, '-o');
            hold(app.axSensLocation, 'off');
            xlabel(app.axSensLocation, 'Bus 2 Share of Total Pd');
            ylabel(app.axSensLocation, 'DLMP LAM_P');
            title(app.axSensLocation, 'Same Total Demand, Different Load Location');
            legend(app.axSensLocation, {'Bus 2', 'Bus 3', 'Bus 4'}, 'Location', 'best');
            grid(app.axSensLocation, 'off');
        end

        originalRows = S(strcmp(string(S.experiment), "swap_original"), :);
        swappedRows = S(strcmp(string(S.experiment), "swap_swapped"), :);
        if height(originalRows) > 0 && height(swappedRows) > 0
            originalRows = sortrows(originalRows, 'step_no');
            swappedRows = sortrows(swappedRows, 'step_no');
            nPairs = min(height(originalRows), height(swappedRows));
            pairIndex = originalRows.step_no(1:nPairs);
            dBus2 = swappedRows.out_bus2_DLMP_LAM_P(1:nPairs) - originalRows.out_bus2_DLMP_LAM_P(1:nPairs);
            dBus3 = swappedRows.out_bus3_DLMP_LAM_P(1:nPairs) - originalRows.out_bus3_DLMP_LAM_P(1:nPairs);
            dBus4 = swappedRows.out_bus4_DLMP_LAM_P(1:nPairs) - originalRows.out_bus4_DLMP_LAM_P(1:nPairs);
            plot(app.axSensSwap, pairIndex, dBus2, '-o');
            hold(app.axSensSwap, 'on');
            plot(app.axSensSwap, pairIndex, dBus3, '-o');
            plot(app.axSensSwap, pairIndex, dBus4, '-o');
            yline(app.axSensSwap, 0, '--');
            hold(app.axSensSwap, 'off');
            xlabel(app.axSensSwap, 'Pair index');
            ylabel(app.axSensSwap, 'Swapped - Original DLMP');
            title(app.axSensSwap, 'Effect of Swapping Bus 2 and Bus 4 Pd');
            legend(app.axSensSwap, {'Bus 2', 'Bus 3', 'Bus 4', 'No change'}, 'Location', 'best');
            grid(app.axSensSwap, 'off');
        end
    end

    function logMsg(msg)
        stamp = datestr(now, 'HH:MM:SS');
        current = app.log.Value;
        if ischar(current)
            current = {current};
        end
        app.log.Value = [current; {sprintf('[%s] %s', stamp, msg)}];
        drawnow limitrate;
    end

    function cfg = readConfigFromUI()
        cfg                 = struct();
        cfg.N               = max(1, round(app.nField.Value));
        cfg.seed            = round(app.seedField.Value);
        cfg.loadPDF         = app.loadPdfDrop.Value;
        cfg.pfPDF           = app.pfPdfDrop.Value;
        cfg.offerPDF        = app.offerPdfDrop.Value;
        cfg.runValidation   = app.validateCheck.Value;
        cfg.outputFile      = strtrim(app.outputField.Value);
        cfg.sensOutputFile  = strtrim(app.sensOutputField.Value);
        cfg.maxAttemptsPerScenario = 100;
        cfg.dynamicBaseMVA  = str2double(app.defaultBaseMVAField.Value);

        r = struct();
        r.Pd2 = parseRange(app.pd2Field.Value, 'Bus 2 Pd');
        r.Pd4 = parseRange(app.pd4Field.Value, 'Bus 4 Pd');
        r.pf2 = parseRange(app.pf2Field.Value, 'Bus 2 PF');
        r.pf4 = parseRange(app.pf4Field.Value, 'Bus 4 PF');

        r.grid_c1 = parseRange(app.gridC1Field.Value, 'Grid c1');
        r.der_c1 = parseRange(app.derC1Field.Value, 'DER c1');
        r.pro_c1 = parseRange(app.proC1Field.Value, 'Prosumer c1');

        r.grid_c2 = parseRange(app.gridC2Field.Value, 'Grid c2');
        r.der_c2 = parseRange(app.derC2Field.Value, 'DER c2');
        r.pro_c2 = parseRange(app.proC2Field.Value, 'Prosumer c2');

        r.grid_c0 = [0 0];
        r.der_c0 = [0 0];
        r.pro_c0 = [0 0];
        cfg.range = r;

        if isempty(cfg.outputFile)
            cfg.outputFile = 'dataset_4bus_dashboard.xlsx';
        end
        if isempty(cfg.sensOutputFile)
            cfg.sensOutputFile = 'sensitivity_4bus_dashboard.xlsx';
        end
        if ~isfinite(cfg.dynamicBaseMVA) || cfg.dynamicBaseMVA <= 0
            cfg.dynamicBaseMVA = 10;
        end
    end

    buildPreviewNetwork();
end

%% ========================================================================
% Local computational functions
%% ========================================================================
function rangePair = parseRange(txt, label)
    if isnumeric(txt)
        vals = txt;
    else
        vals = sscanf(char(txt), '%f%*[,; ]%f');
    end
    if numel(vals) ~= 2
        error('%s must be entered as two numbers, for example: 1.60, 2.40', label);
    end
    rangePair = vals(:)';
    if rangePair(1) > rangePair(2)
        error('%s has min greater than max.', label);
    end
end

function scenario = generateScenarioFromConfig(cfg)
    r = cfg.range;

    scenario.Pd2 = sampleByPDF(r.Pd2, cfg.loadPDF);
    scenario.Pd4 = sampleByPDF(r.Pd4, cfg.loadPDF);
    scenario.pf2 = sampleByPDF(r.pf2, cfg.pfPDF);
    scenario.pf4 = sampleByPDF(r.pf4, cfg.pfPDF);

...